8
	Energy:     -65.2069888
S         -4.42703        0.44647        0.50776
S         -3.42537        1.99419       -0.37414
S         -1.70204        2.25519        0.69287
S         -0.21336        1.35053       -0.37574
S         -4.06708       -1.20740       -0.63752
S         -2.60955       -2.27254        0.32039
S          0.11544       -0.46381        0.50550
S         -0.85507       -1.85106       -0.63913
