8
	Energy:     -44.3600558
S         -7.56483       -0.53776        0.13093
S         -6.21963        0.88547        0.63770
S         -4.83866        0.88232       -0.87960
S         -3.48855       -0.58114       -0.38301
S         -2.16542        0.32327        0.89667
S         -0.79774        1.25438       -0.31724
S          0.57262       -0.19329       -0.80270
S          1.90742       -0.18844        0.71725
