7
	Energy:     -48.6630323
S         -6.96491        0.85631       -0.27685
S         -5.60555        2.28375        0.27466
S         -3.83742        1.80041       -0.65808
S         -2.95727        0.52650        0.68215
S         -3.17439       -1.39331        0.00133
S         -5.08082       -1.70385       -0.68087
S         -6.39706       -0.88558        0.65766
