9
	Energy:     -32.5632859
S         -5.43755        0.26271        0.74292
S         -4.46946        1.61757       -0.46482
S         -2.47743        1.48036       -0.01469
S         -1.83796       -0.33681       -0.73394
S         -2.22071       -1.59933        0.83367
S         -3.91010       -2.67523        0.41151
S         -5.36480       -1.45701       -0.36475
Li       -13.50470        0.27277        0.05876
Li         7.04247       -0.33817        0.05490
