9
	Energy:     -30.9094107
S         -4.25395       -0.22660        0.27414
S         -3.01687        1.30885       -0.27508
S         -1.21653        0.97446        0.66237
S         -0.23058       -0.22127       -0.67436
S         -0.28948       -2.15393        0.00803
S         -2.16349       -2.62073        0.68512
S         -3.54123       -1.91532       -0.65766
Li        -1.20919       -0.68431        9.11606
Li        -3.19814       -0.88472       -9.40707
